TCL
  CCTOOLS-0919241033

 24 25  0  0  0  0  0  0  0  0999 V2000
   -0.0650    1.0060    3.0500 C   0  0  0  0  0
   -0.3270   -0.2130    3.6470 C   0  0  0  0  0
    0.5850    1.0530    1.8270 C   0  0  0  0  0
    0.9690   -0.1280    1.2010 C   0  0  0  0  0
    0.7070   -1.3470    1.8070 C   0  0  0  0  0
    0.0580   -1.3870    3.0260 C   0  0  0  0  0
   -1.3200   -0.0150   -2.9050 C   0  0  0  0  0
    0.0090   -0.1320   -3.2680 C   0  0  0  0  0
    0.9920   -0.1510   -2.2970 C   0  0  0  0  0
    0.6430   -0.0630   -0.9560 C   0  0  0  0  0
   -1.6700    0.0780   -1.5690 C   0  0  0  0  0
   -0.6910    0.0540   -0.5950 C   0  0  0  0  0
    1.6070   -0.0870    0.0010 O   0  0  0  0  0
   -1.1420   -0.2700    5.1790 CL  0  0  0  0  0
   -2.5530    0.0150   -4.1270 CL  0  0  0  0  0
    2.6610   -0.2980   -2.7520 CL  0  0  0  0  0
    0.8430    2.2510    1.2380 O   0  0  0  0  0
   -0.3670    1.9220    3.5360 H   0  0  0  0  0
    1.0080   -2.2650    1.3240 H   0  0  0  0  0
   -0.1470   -2.3380    3.4960 H   0  0  0  0  0
    0.2790   -0.2060   -4.3110 H   0  0  0  0  0
   -2.7080    0.1700   -1.2890 H   0  0  0  0  0
   -0.9640    0.1270    0.4460 H   0  0  0  0  0
    1.7120    2.5360    1.5530 H   0  0  0  0  0
  1  2  2  0  0  0
  1  3  1  0  0  0
  1 18  1  0  0  0
  2  6  1  0  0  0
  2 14  1  0  0  0
  3  4  2  0  0  0
  3 17  1  0  0  0
  4  5  1  0  0  0
  4 13  1  0  0  0
  5  6  2  0  0  0
  5 19  1  0  0  0
  6 20  1  0  0  0
  7  8  2  0  0  0
  7 11  1  0  0  0
  7 15  1  0  0  0
  8  9  1  0  0  0
  8 21  1  0  0  0
  9 10  2  0  0  0
  9 16  1  0  0  0
 10 12  1  0  0  0
 10 13  1  0  0  0
 11 12  2  0  0  0
 11 22  1  0  0  0
 12 23  1  0  0  0
 17 24  1  0  0  0
M  END
$$$$
